Version 4
SHEET 1 880 680
WIRE -720 -176 -784 -176
WIRE -720 -160 -720 -176
WIRE -704 -160 -720 -160
WIRE -608 -160 -656 -160
WIRE -352 -160 -464 -160
WIRE -112 -160 -352 -160
WIRE -704 -128 -720 -128
WIRE -640 -128 -656 -128
WIRE -352 -128 -416 -128
WIRE -640 -112 -640 -128
WIRE -608 -112 -640 -112
WIRE -416 -112 -416 -128
WIRE -416 -112 -464 -112
WIRE -784 -96 -784 -112
WIRE -720 -96 -720 -128
WIRE -720 -96 -784 -96
WIRE -528 -64 -528 -96
WIRE -400 -64 -528 -64
WIRE -464 0 -480 0
WIRE -400 32 -400 -64
WIRE -112 32 -112 -160
WIRE -464 80 -464 0
WIRE -384 80 -464 80
WIRE -160 80 -288 80
WIRE 0 80 -64 80
WIRE 128 80 128 48
WIRE 128 80 64 80
WIRE -800 128 -880 128
WIRE -656 128 -736 128
WIRE -432 128 -560 128
WIRE -368 208 -368 192
WIRE -368 208 -480 208
WIRE -336 240 -336 192
WIRE -816 304 -880 304
WIRE -480 304 -480 208
WIRE -480 304 -736 304
SYMBOL custom\\prop 160 32 R0
SYMATTR InstName X1
SYMBOL custom\\PWM -592 160 R0
WINDOW 0 4 65 Invisible 2
SYMATTR InstName XPWM
SYMBOL custom\\motor 80 96 R0
SYMATTR InstName X2
SYMBOL custom\\ESC -80 96 R0
SYMATTR InstName X3
SYMBOL custom\\RC -688 144 R0
SYMATTR InstName X4
SYMBOL custom\\antenna -832 80 R0
SYMATTR InstName X5
SYMBOL custom\\antenna -832 256 R0
SYMATTR InstName X6
SYMBOL custom\\Telemetry -720 320 R0
SYMATTR InstName X7
SYMBOL custom\\Pi -288 288 R0
SYMATTR InstName X8
SYMBOL custom\\battery -736 -128 R0
SYMATTR InstName X9
SYMBOL custom\\bconn -640 -112 R0
SYMATTR InstName X10
SYMBOL custom\\PDB -320 -144 R270
SYMATTR InstName X11
SYMBOL custom\\navio -320 96 R0
SYMATTR InstName X12
SYMBOL custom\\pwr_module -512 -96 R0
SYMATTR InstName X13
SYMBOL custom\\GPS -432 48 R0
SYMATTR InstName X14
TEXT -904 24 Left 2 ;2.4G
TEXT -904 200 Left 2 ;915M
TEXT -912 -136 Left 2 ;3S\n3000 mAh\n30C
TEXT -240 248 Left 2 ;N or top
TEXT -600 -16 Left 2 ;N
TEXT -280 40 Left 0 ;always white wire\non top
TEXT -280 72 Left 1 ;to top right\nESC
TEXT -280 112 Left 1 ;to bot left
TEXT -536 144 Left 1 ;RBWhite
TEXT -712 104 Left 2 ;6
TEXT -280 144 Left 1 ;to top left
TEXT -280 176 Left 1 ;to bot right
TEXT -560 -176 Left 1 ;50g
TEXT -344 -128 Left 1 ;PDB
LINE Normal -208 272 -208 336 2
LINE Normal -224 288 -208 272 2
LINE Normal -208 272 -224 288 2
LINE Normal -208 272 -208 272 2
LINE Normal -192 288 -208 272 2
LINE Normal -560 -32 -544 -16 2
LINE Normal -576 -16 -560 -32 2
LINE Normal -560 0 -560 -32 2
LINE Normal -560 0 -560 0 2
LINE Normal -336 64 -336 192 2
LINE Normal -400 64 -336 64 2
LINE Normal -400 32 -400 64 2
LINE Normal -400 32 -400 32 2
LINE Normal -688 112 -720 144
LINE Normal -688 112 -688 112 2
