Version 4
SHEET 1 2008 680
FLAG 112 96 plus
IOPIN 112 96 BiDir
FLAG 112 288 minus
IOPIN 112 288 BiDir
TEXT -96 152 Left 2 ;GOLDBAT 3S 11.1V 3000mAh 30C Lipo Battery with \nDean-Style T Connector and XT60 Connector for RC Car\n Airplane Helicopter Boat Drone FPV and Quadcopter Remote Control Toys
