Version 4
SHEET 1 880 680
FLAG 16 112 pwm
IOPIN 16 112 In
FLAG 256 112 pwr
IOPIN 256 112 Out
FLAG 128 80 vbat
IOPIN 128 80 In
TEXT -24 48 Left 2 ;Electronic Speed Controller
TEXT -40 152 Left 2 ;If you go 20% over the calculaed max,\nyou'll have margin in max current\n \n25 g vs 10 g can buy you 30A vs 20A per ESC
