Version 4
SHEET 1 880 680
FLAG 240 144 RF
IOPIN 240 144 Out
TEXT 80 72 Left 2 ;GPS module
TEXT -8 200 Left 2 ;Where does GPS module get\nits power from?
TEXT -8 280 Left 2 ;A : There is no power required\nThis is just an antenna. It needs to\nreceive the GPS signals free from\nnoise, hence physical isolation
