Version 4
SHEET 1 1236 680
WIRE 64 128 16 128
FLAG 16 128 pwr
IOPIN 16 128 In
FLAG 240 128 torque
IOPIN 240 128 Out
TEXT -112 200 Left 2 ;KV rating : what kilo rpm do you get at no-load\n(nothing resisting rotation, like a prop) with a particular voltage
TEXT -40 320 Left 2 ;Aria Yudhistira test results :\nM : XXD A2212 1000kv\nLiPo 3S 11.99V\nProp : Gemfan 1045\nThrust : 830 g\nCurrent : 15.22A
TEXT 440 344 Left 2 ;A2212 M and 1045\n770 g thrust\n14 A\nAlso 3S
TEXT -40 -160 Left 2 ;https://emaxmodel.com/catalog/product/view/id/67/s/multi-copter-motor-mt2213-920kv/category/1783/\n \ndia : 28 mm\nlen : 39.5 mm\nweight : 53 g\nKV : 920\n3S (LiPo) and 1045 (prop)\nCurrent : 18A (ESC recommended rating)\nMax Thrust : 860 g
