Version 4
SHEET 1 880 680
FLAG 112 80 vdd
IOPIN 112 80 In
FLAG 192 160 PPMSB
IOPIN 192 160 Out
FLAG 272 256 1
IOPIN 272 256 Out
FLAG 272 304 2
IOPIN 272 304 Out
FLAG 272 352 3
IOPIN 272 352 Out
FLAG 272 416 4
IOPIN 272 416 Out
FLAG 240 80 TM_UART
IOPIN 240 80 Out
FLAG 48 224 GPS
IOPIN 48 224 In
TEXT 208 48 Left 2 ;to right of GPS input
