Version 4
SHEET 1 880 680
FLAG 96 80 vdd
IOPIN 96 80 In
TEXT -80 176 Left 2 ;What do you need to install on the Pi?
TEXT -136 232 Left 2 ;Save $ - don't buy an SD card with NOOBS pre-installed.\nTo use with NAVIO, you *have* to install the emlid image!!
TEXT 136 40 Left 2 ;Pi placement is not directional,\nbut CB suggests orientation wehre\nUSB jacks are facing top or north
