Version 4
SHEET 1 1388 680
WIRE 240 -96 240 -128
WIRE 160 -64 64 -64
WIRE 592 -64 480 -64
FLAG 64 -64 cmd
IOPIN 64 -64 In
FLAG 240 -128 v5v
IOPIN 240 -128 In
FLAG 400 -64 pwm
IOPIN 400 -64 Out
TEXT -96 40 Left 2 ;ShareGoo 8CH PPM Encoder & Pixhawk I2C Splitter Expand Module for Pixhawk PPZ MK MWC MegaPirate APM Flight Controller
TEXT -80 104 Left 2 ;$12
TEXT -104 176 Left 2 ;Package Dimensions              5 x 3.2 x 0.1 inches\nItem Weight     0.64 ounces\nShipping Weight 0.8 ounces\nASIN            B00WJJG8YW
TEXT -24 360 Left 2 ;https://download.ardupilot.org/downloads/wiki/advanced_user_tools/PPM-Encoder-3DR-Manual-v2.3.16.pdf
TEXT 40 400 Left 2 ;(Please note that throttle must be on channel 3 in order for the failsafe to work properly!)
