Version 4
SHEET 1 880 680
FLAG 272 432 pwrnav
IOPIN 272 432 Out
FLAG 48 272 pin
IOPIN 48 272 BiDir
FLAG 48 352 gin
IOPIN 48 352 BiDir
FLAG 320 272 pout
IOPIN 320 272 BiDir
FLAG 320 352 gout
IOPIN 320 352 BiDir
TEXT -56 72 Left 2 ;https://store.emlid.com/product/power-module/\n \nUpto LiPo 6S\nUpto 60A\noutput 5.3V 2.25A
