Version 4
SHEET 1 1300 864
FLAG 32 144 antenna
IOPIN 32 144 In
FLAG 192 144 ch[5:0]
IOPIN 192 144 Out
FLAG 96 48 vdd
IOPIN 96 48 In
TEXT -120 200 Left 2 ;RCmall Flysky FS-T6 High Precision 2.4G 6 Channel 6ch Radio Controller
TEXT -16 240 Left 2 ;$52 on AMZN
TEXT 200 240 Left 2 ;8 AA batteries not included
TEXT -104 288 Left 2 ;https://drive.google.com/file/d/0B8DSGdAr8_31T0hGbFNrX000VVk/view
TEXT -24 344 Left 2 ;Specifications:\nChannels: 6\nModel type: glider/heli/airlane\nRF range: 2.40-2.48GHz\nBandwidth: 500KHz\nBand: 160\nRF power: less than 20 dBm\n2.4G system: AFHDS\nCode type: GFSK\nSensitivity: 1024\nLow voltage warning: yes(less than 9V)\nDSC port: yes(PS2; output: PPM)\nCharger port: yes\nNet Weight:590g\nANT length: 26mm\nSize: 302*190*93mm\nColor: black Certificate: CE, FCC\nPackage size: 225*125*250mm\nPackage weight: 914g
TEXT 248 544 Left 2 ;AFHDS : Automatic Frequency\nHopping Digital System
TEXT 656 376 Left 2 ;For binding RX to TX :\n(connect battery last)\nconnect signal wires from any ESC to CH3 of RX\nJumper the BATT pins\nPlug in battery and you should hear beeps from motors
TEXT 696 592 Left 2 ;Signal (colour) wires closer to the inside\nwhite - CH1, accompanied by power\nCH2 : orange\nCH3 : yellow\n...\nCH6 : purple\nnothing into the battery slow
